engines/SCOPF_R5/input_data/Transmission_Network_PT_2020_ods.m
function mpc = Transmission_Network_PT_2020

%% MATPOWER Case Format : Version 2
mpc.version = '2';

%%-----  Power Flow Data  -----%%
%% system MVA base
mpc.baseMVA = 100;

%% bus data
%	bus_i	type	Pd	Qd	Gs	Bs	area	Vm	Va	baseKV	zone	Vmax	Vmin
mpc.bus = [
	1	2	0.000	0.000	0	0	1	1	0	400	1	1.05	0.95	;
	2	2	0.000	0.000	0	0	1	1	0	400	1	1.05	0.95	;
	3	2	0.000	0.000	0	0	1	1	0	400	1	1.05	0.95	;
	4	2	0.000	0.000	0	0	1	1	0	400	1	1.05	0.95	;
	5	2	0.000	0.000	0	0	1	1	0	220	1	1.05	0.95	;
	6	2	0.000	0.000	0	0	1	1	0	220	1	1.05	0.95	;
	7	2	0.000	0.000	0	0	1	1	0	400	1	1.05	0.95	;
	8	1	0.000	0.000	0	0	1	1	0	150	2	1.05	0.95	;
	9	1	0.000	0.000	0	0	1	1	0	150	2	1.05	0.95	;
	10	1	0.000	0.000	0	0	1	1	0	150	2	1.05	0.95	;
	11	1	0.967	-0.097	0	0	1	1	0	150	2	1.05	0.95	;
	12	1	0.000	0.000	0	0	1	1	0	150	2	1.05	0.95	;
	13	1	3.870	1.161	0	0	1	1	0	150	2	1.05	0.95	;
	14	1	0.000	0.000	0	0	1	1	0	150	2	1.05	0.95	;
	15	1	0.000	0.000	0	0	1	1	0	150	2	1.05	0.95	;
	16	1	0.000	0.000	0	0	1	1	0	150	2	1.05	0.95	;
	17	1	0.000	0.000	0	0	1	1	0	150	2	1.05	0.95	;
	18	1	0.000	0.000	0	0	1	1	0	150	2	1.05	0.95	;
	19	1	0.000	0.000	0	0	1	1	0	150	2	1.05	0.95	;
	20	1	0.000	0.000	0	0	1	1	0	150	2	1.05	0.95	;
	21	1	0.000	0.000	0	0	1	1	0	150	2	1.05	0.95	;
	22	2	0.000	0.000	0	0	1	1	0	150	2	1.05	0.95	;
	23	1	0.000	0.000	0	0	1	1	0	150	2	1.05	0.95	;
	24	1	0.000	0.000	0	0	1	1	0	150	2	1.05	0.95	;
	25	1	0.000	0.000	0	0	1	1	0	150	2	1.05	0.95	;
	26	1	3.289	0.387	0	0	1	1	0	150	2	1.05	0.95	;
	27	1	0.000	-0.300	0	0	1	1	0	150	2	1.05	0.95	;
	28	1	0.193	-0.193	0	0	1	1	0	150	2	1.05	0.95	;
	29	1	0.000	0.000	0	0	1	1	0	150	2	1.05	0.95	;
	30	2	0.000	0.000	0	0	1	1	0	150	2	1.05	0.95	;
	31	1	0.000	0.000	0	0	1	1	0	150	2	1.05	0.95	;
	32	1	0.000	0.000	0	0	1	1	0	150	2	1.05	0.95	;
	33	1	0.000	0.000	0	0	1	1	0	150	2	1.05	0.95	;
	34	1	0.000	0.000	0	-75	1	1	0	150	2	1.05	0.95	;
	35	1	0.000	0.000	0	0	1	1	0	150	2	1.05	0.95	;
	36	1	0.000	0.000	0	0	1	1	0	220	2	1.05	0.95	;
	37	1	0.000	0.000	0	0	1	1	0	220	2	1.05	0.95	;
	38	1	0.000	0.000	0	0	1	1	0	220	2	1.05	0.95	;
	39	1	0.000	0.000	0	0	1	1	0	220	2	1.05	0.95	;
	40	1	0.000	0.000	0	0	1	1	0	220	2	1.05	0.95	;
	41	1	0.000	0.000	0	0	1	1	0	220	2	1.05	0.95	;
	42	1	0.000	0.000	0	0	1	1	0	220	2	1.05	0.95	;
	43	1	0.000	0.000	0	0	1	1	0	220	2	1.05	0.95	;
	44	1	0.000	0.000	0	0	1	1	0	220	2	1.05	0.95	;
	45	1	0.000	0.000	0	0	1	1	0	220	2	1.05	0.95	;
	46	1	0.000	0.000	0	0	1	1	0	220	2	1.05	0.95	;
	47	1	0.000	0.000	0	0	1	1	0	220	2	1.05	0.95	;
	48	1	0.000	0.000	0	0	1	1	0	220	2	1.05	0.95	;
	49	1	0.000	0.000	0	0	1	1	0	220	2	1.05	0.95	;
	50	1	0.000	0.000	0	100	1	1	0	220	2	1.05	0.95	;
	51	1	0.000	0.000	0	0	1	1	0	220	2	1.05	0.95	;
	52	1	0.000	0.000	0	0	1	1	0	220	2	1.05	0.95	;
	53	1	0.000	0.000	0	0	1	1	0	220	2	1.05	0.95	;
	54	1	0.000	0.000	0	0	1	1	0	220	2	1.05	0.95	;
	55	1	0.000	0.000	0	0	1	1	0	220	2	1.05	0.95	;
	56	1	0.000	0.000	0	100	1	1	0	220	2	1.05	0.95	;
	57	1	0.000	0.000	0	0	1	1	0	220	2	1.05	0.95	;
	58	1	0.000	0.000	0	0	1	1	0	220	2	1.05	0.95	;
	59	1	0.000	0.000	0	0	1	1	0	220	2	1.05	0.95	;
	60	1	0.000	0.000	0	0	1	1	0	220	2	1.05	0.95	;
	61	2	0.000	0.000	0	0	1	1	0	220	2	1.05	0.95	;
	62	1	0.000	0.000	0	0	1	1	0	220	2	1.05	0.95	;
	63	1	0.000	0.000	0	0	1	1	0	220	2	1.05	0.95	;
	64	1	0.000	0.000	0	0	1	1	0	220	2	1.05	0.95	;
	65	1	0.000	0.000	0	0	1	1	0	220	2	1.05	0.95	;
	66	1	0.000	0.000	0	0	1	1	0	220	2	1.05	0.95	;
	67	1	1.161	-0.097	0	0	1	1	0	220	2	1.05	0.95	;
	68	1	0.000	0.000	0	0	1	1	0	220	2	1.05	0.95	;
	69	1	0.000	0.000	0	0	1	1	0	220	2	1.05	0.95	;
	70	1	0.000	0.000	0	0	1	1	0	220	2	1.05	0.95	;
	71	1	0.000	0.000	0	0	1	1	0	220	2	1.05	0.95	;
	72	1	0.000	0.000	0	-70	1	1	0	220	2	1.05	0.95	;
	73	1	0.000	0.000	0	0	1	1	0	220	2	1.05	0.95	;
	74	1	0.000	0.000	0	0	1	1	0	220	2	1.05	0.95	;
	75	1	0.000	0.000	0	0	1	1	0	220	2	1.05	0.95	;
	76	1	0.000	0.000	0	0	1	1	0	220	2	1.05	0.95	;
	77	1	0.000	0.000	0	0	1	1	0	220	2	1.05	0.95	;
	78	1	0.000	0.000	0	-70	1	1	0	220	2	1.05	0.95	;
	79	1	0.000	0.000	0	0	1	1	0	220	2	1.05	0.95	;
	80	1	0.000	0.000	0	0	1	1	0	400	2	1.05	0.95	;
	81	1	0.000	0.000	0	0	1	1	0	400	2	1.05	0.95	;
	82	1	0.000	0.000	0	0	1	1	0	400	2	1.05	0.95	;
	83	1	0.000	0.000	0	0	1	1	0	400	2	1.05	0.95	;
	84	1	0.000	0.000	0	0	1	1	0	400	2	1.05	0.95	;
	85	1	0.000	0.000	0	-150	1	1	0	400	2	1.05	0.95	;
	86	1	0.000	0.000	0	0	1	1	0	400	2	1.05	0.95	;
	87	1	0.000	0.000	0	0	1	1	0	400	2	1.05	0.95	;
	88	1	0.000	0.000	0	0	1	1	0	400	2	1.05	0.95	;
	89	1	0.000	0.000	0	-150	1	1	0	400	2	1.05	0.95	;
	90	1	0.000	0.000	0	-150	1	1	0	400	2	1.05	0.95	;
	91	1	0.000	0.000	0	0	1	1	0	400	2	1.05	0.95	;
	92	1	0.000	0.000	0	-150	1	1	0	400	2	1.05	0.95	;
	93	1	0.000	0.000	0	0	1	1	0	400	2	1.05	0.95	;
	94	1	0.000	0.000	0	0	1	1	0	400	2	1.05	0.95	;
	95	1	0.000	0.000	0	0	1	1	0	400	2	1.05	0.95	;
	96	1	0.000	0.000	0	0	1	1	0	400	2	1.05	0.95	;
	97	1	0.000	0.000	0	0	1	1	0	400	2	1.05	0.95	;
	98	1	0.000	0.000	0	0	1	1	0	400	2	1.05	0.95	;
	99	1	0.000	0.000	0	0	1	1	0	400	2	1.05	0.95	;
	100	1	0.000	0.000	0	0	1	1	0	400	2	1.05	0.95	;
	101	1	0.000	0.000	0	-150	1	1	0	400	2	1.05	0.95	;
	102	1	0.000	0.000	0	-150	1	1	0	400	2	1.05	0.95	;
	103	1	0.000	0.000	0	0	1	1	0	400	2	1.05	0.95	;
	104	1	0.000	0.000	0	-150	1	1	0	400	2	1.05	0.95	;
	105	1	0.000	0.000	0	0	1	1	0	400	2	1.05	0.95	;
	106	1	0.000	0.000	0	0	1	1	0	400	2	1.05	0.95	;
	107	1	0.000	0.000	0	0	1	1	0	400	2	1.05	0.95	;
	108	2	16.515	1.651	0	0	1	1	0	130	2	1.05	0.95	;
	109	2	288.038	28.804	0	0	1	1	0	63	2	1.05	0.95	;
	110	2	180.569	18.057	0	0	1	1	0	63	2	1.05	0.95	;
	111	2	171.406	17.141	0	0	1	1	0	63	2	1.05	0.95	;
	112	2	227.436	22.744	0	0	1	1	0	63	2	1.05	0.95	;
	113	2	78.735	7.874	0	0	1	1	0	63	2	1.05	0.95	;
	114	2	175.897	17.590	0	0	1	1	0	63	2	1.05	0.95	;
	115	2	64.577	6.458	0	0	1	1	0	63	2	1.05	0.95	;
	116	2	347.998	34.800	0	0	1	1	0	63	2	1.05	0.95	;
	117	2	57.952	5.795	0	0	1	1	0	63	2	1.05	0.95	;
	118	2	130.434	13.043	0	0	1	1	0	63	2	1.05	0.95	;
	119	2	263.377	26.338	0	0	1	1	0	63	2	1.05	0.95	;
	120	2	150.924	15.092	0	0	1	1	0	63	2	1.05	0.95	;
	121	2	128.818	12.882	0	0	1	1	0	63	2	1.05	0.95	;
	122	2	240.423	24.042	0	0	1	1	0	63	2	1.05	0.95	;
	123	2	208.300	20.830	0	0	1	1	0	63	2	1.05	0.95	;
	124	2	141.982	14.198	0	0	1	1	0	63	2	1.05	0.95	;
	125	2	135.760	13.576	0	0	1	1	0	63	2	1.05	0.95	;
	126	2	100.672	10.067	0	0	1	1	0	63	2	1.05	0.95	;
	127	2	88.985	8.899	0	0	1	1	0	63	2	1.05	0.95	;
	128	2	337.562	33.756	0	0	1	1	0	63	2	1.05	0.95	;
	129	2	305.236	30.524	0	0	1	1	0	63	2	1.05	0.95	;
	130	2	368.392	36.839	0	0	1	1	0	63	2	1.05	0.95	;
	131	2	159.277	15.928	0	0	1	1	0	63	2	1.05	0.95	;
	132	2	11.766	1.177	0	0	1	1	0	63	2	1.05	0.95	;
	133	2	141.085	14.108	0	0	1	1	0	63	2	1.05	0.95	;
	134	2	196.118	19.612	0	0	1	1	0	63	2	1.05	0.95	;
	135	1	213.910	12.577	0	0	1	1	0	63	2	1.05	0.95	;
	136	2	242.579	24.258	0	0	1	1	0	63	2	1.05	0.95	;
	137	2	135.888	13.589	0	0	1	1	0	63	2	1.05	0.95	;
	138	2	137.598	13.760	0	0	1	1	0	63	2	1.05	0.95	;
	139	2	169.328	16.933	0	0	1	1	0	63	2	1.05	0.95	;
	140	2	93.317	9.332	0	0	1	1	0	63	2	1.05	0.95	;
	141	2	122.286	12.229	0	0	1	1	0	63	2	1.05	0.95	;
	142	2	147.930	14.793	0	0	1	1	0	63	2	1.05	0.95	;
	143	1	48.568	3.967	0	0	1	1	0	63	2	1.05	0.95	;
	144	2	73.556	7.356	0	0	1	1	0	63	2	1.05	0.95	;
	145	2	213.805	21.380	0	0	1	1	0	63	2	1.05	0.95	;
	146	2	15.480	1.548	0	0	1	1	0	63	2	1.05	0.95	;
	147	2	80.502	8.050	0	0	1	1	0	63	2	1.05	0.95	;
	148	1	0.000	0.000	0	0	1	1	0	63	2	1.05	0.95	;
	149	2	153.632	15.363	0	0	1	1	0	63	2	1.05	0.95	;
	150	2	87.107	8.711	0	0	1	1	0	63	2	1.05	0.95	;
	151	2	208.967	20.897	0	0	1	1	0	63	2	1.05	0.95	;
	152	2	93.823	9.382	0	0	1	1	0	63	2	1.05	0.95	;
	153	2	10.140	1.014	0	0	1	1	0	63	2	1.05	0.95	;
	154	2	97.181	9.718	0	0	1	1	0	63	2	1.05	0.95	;
	155	2	54.110	5.411	0	0	1	1	0	63	2	1.05	0.95	;
	156	2	18.858	1.886	0	0	1	1	0	63	2	1.05	0.95	;
	157	2	92.122	9.212	0	0	1	1	0	63	2	1.05	0.95	;
	158	2	98.434	9.843	0	0	1	1	0	63	2	1.05	0.95	;
	159	2	91.950	9.195	0	0	1	1	0	63	2	1.05	0.95	;
	160	2	93.571	9.357	0	0	1	1	0	63	2	1.05	0.95	;
	161	2	20.821	2.082	0	0	1	1	0	63	2	1.05	0.95	;
	162	2	71.521	7.152	0	0	1	1	0	63	2	1.05	0.95	;
	163	2	7.322	0.732	0	0	1	1	0	63	2	1.05	0.95	;
	164	2	32.921	3.292	0	0	1	1	0	63	2	1.05	0.95	;
	165	2	41.619	4.162	0	0	1	1	0	63	2	1.05	0.95	;
	166	2	131.410	13.141	0	0	1	1	0	63	2	1.05	0.95	;
	167	2	13.433	1.343	0	0	1	1	0	63	2	1.05	0.95	;
	168	2	158.737	15.874	0	0	1	1	0	63	2	1.05	0.95	;
	169	2	28.618	2.862	0	0	1	1	0	63	2	1.05	0.95	;
	170	2	31.548	3.155	0	0	1	1	0	63	2	1.05	0.95	;
	171	2	64.265	6.426	0	0	1	1	0	63	2	1.05	0.95	;
	172	2	29.200	2.920	0	0	1	1	0	63	2	1.05	0.95	;
	173	2	0.000	0.000	0	0	1	1	0	150	2	1.05	0.95	;
	174	2	0.000	0.000	0	0	1	1	0	150	2	1.05	0.95	;
	175	2	0.000	0.000	0	0	1	1	0	150	2	1.05	0.95	;
	176	2	0.000	0.000	0	0	1	1	0	150	2	1.05	0.95	;
	177	2	0.000	0.000	0	0	1	1	0	150	2	1.05	0.95	;
	178	2	0.000	0.000	0	0	1	1	0	150	2	1.05	0.95	;
	179	2	0.000	0.000	0	0	1	1	0	150	2	1.05	0.95	;
	180	1	0.000	0.000	0	0	1	1	0	150	2	1.05	0.95	;
	181	2	0.000	0.000	0	0	1	1	0	150	2	1.05	0.95	;
	182	2	0.000	0.000	0	0	1	1	0	150	2	1.05	0.95	;
	183	2	0.000	0.000	0	0	1	1	0	150	2	1.05	0.95	;
	184	1	0.000	0.000	0	0	1	1	0	150	2	1.05	0.95	;
	185	1	0.000	0.000	0	0	1	1	0	150	2	1.05	0.95	;
	186	1	0.000	0.000	0	0	1	1	0	150	2	1.05	0.95	;
	187	2	0.000	0.000	0	0	1	1	0	220	2	1.05	0.95	;
	188	2	0.000	0.000	0	0	1	1	0	220	2	1.05	0.95	;
	189	2	0.000	0.000	0	0	1	1	0	220	2	1.05	0.95	;
	190	1	0.000	0.000	0	0	1	1	0	220	2	1.05	0.95	;
	191	2	0.000	0.000	0	0	1	1	0	220	2	1.05	0.95	;
	192	2	0.000	0.000	0	0	1	1	0	220	2	1.05	0.95	;
	193	1	0.000	0.000	0	0	1	1	0	220	2	1.05	0.95	;
	194	2	0.000	0.000	0	0	1	1	0	220	2	1.05	0.95	;
	195	2	0.000	0.000	0	0	1	1	0	220	2	1.05	0.95	;
	196	2	0.000	0.000	0	0	1	1	0	220	2	1.05	0.95	;
	197	1	0.000	0.000	0	0	1	1	0	220	2	1.05	0.95	;
	198	2	0.000	0.000	0	0	1	1	0	220	2	1.05	0.95	;
	199	1	0.000	0.000	0	0	1	1	0	220	2	1.05	0.95	;
	200	2	0.000	0.000	0	0	1	1	0	220	2	1.05	0.95	;
...
];

%% generator data
%	bus	Pg	Qg	Qmax	Qmin	Vg	mBase	status	Pmax	Pmin	Pc1	Pc2	Qc1min	Qc1max	Qc2min	Qc2max	ramp_agc	ramp_10	ramp_30	ramp_q	apf
mpc.gen = [
        1	2.53567	-0.38483	99.99	-99.99	1.0431	1	1	99.99	0	;
2	0.23128	-0.20796	99.99	-99.99	1.048	1	1	99.99	0	;
3	0.07069	-0.22469	99.99	-99.99	1.0428	1	1	99.99	0	;
4	0.10859	-0.40019	99.99	-99.99	1.0431	1	1	99.99	0	;
5	0.61065	-0.08664	99.99	-99.99	1.0411	1	1	99.99	0	;
6	0.39311	-0.04968	99.99	-99.99	1.0408	1	1	99.99	0	;
7	0	0.36618	99.99	-99.99	1.0372	1	1	99.99	0	;
30	0.31	0.01512	0.155	-0.124	1.0349	1	1	0.31	0.155	;
30	0.31	0.01512	0.155	-0.124	1.0349	1	1	0.31	0.155	;
61	0.49	0.001	0.3	-0.24	1.0297	1	1	0.6	0.3	;
61	0.49	0.001	0.3	-0.24	1.0297	1	1	0.6	0.3	;
108	0.00274	-0.00245	0.05385	-0.05385	1.0161	1	1	0.13463	0	;
108	0.04996	-0.00406	0.08913	-0.08913	1.0161	1	1	0.22283	0	;
109	0.155	0.02616	0.0775	-0.062	1.0214	1	1	0.155	0.0775	;
109	0.00774	0.0444	0.15227	-0.15227	1.0214	1	1	0.3807	0	;
109	0.28561	0.06866	0.23546	-0.23546	1.0214	1	1	0.58865	0	;
109	0.03185	0	0	0	1.0214	1	1	0.153	0	;
109	0.3	0.05062	0.15	-0.12	1.0214	1	1	0.3	0.15	;
110	0.07838	-0.02567	0.06462	-0.06462	1.0231	1	1	0.16156	0	;
111	0.02568	0.01588	0.02117	-0.02117	1.0239	1	1	0.05292	0	;
112	0.93881	0.18129	0.77398	-0.77398	1.025	1	1	1.93495	0	;
113	0.0027	-0.00167	0.00223	-0.00223	1.0298	1	1	0.00557	0	;
113	0.01312	0	0	0	1.0298	1	1	0.063	0	;
114	0.12568	0.02439	0.10362	-0.10362	1.0274	1	1	0.25905	0	;
114	0.02727	0	0	0	1.0274	1	1	0.131	0	;
114	0.05413	0.02273	0.09656	-0.09656	1.0274	1	1	0.2414	0	;
114	0.02401	0.11122	0.47241	-0.47241	1.0274	1	1	1.18102	0	;
115	0.0204	0	0	0	1.0114	1	1	0.098	0	;
115	0.15	0.0099	0.09	-0.072	1.0114	1	1	0.18	0	;
115	0.0045	0.00014	0.00371	-0.00371	1.0114	1	1	0.00928	0	;
115	0.00157	0.0012	0.03083	-0.03083	1.0114	1	1	0.07706	0	;
115	0.15	0.0099	0.09	-0.072	1.0114	1	1	0.18	0	;
116	0.00291	0	0	0	1.0206	1	1	0.014	0	;
116	0.30903	0.01948	0.25477	-0.25477	1.0206	1	1	0.63694	0	;
118	0.00025	0.00112	0.00483	-0.00483	1.0234	1	1	0.01207	0	;
118	0.05017	0	0	0	1.0234	1	1	0.241	0	;
118	0.17434	0.03334	0.14373	-0.14373	1.0234	1	1	0.35932	0	;
118	0.16342	0.06763	0.29154	-0.29154	1.0234	1	1	0.72885	0	;
119	0.02343	-0.00451	0.01931	-0.01931	1.0348	1	1	0.04828	0	;
119	0.00687	-0.03155	0.13519	-0.13519	1.0348	1	1	0.33797	0	;
120	0.12388	0.02684	0.10213	-0.10213	1.0239	1	1	0.25533	0	;
120	0.0408	0	0	0	1.0239	1	1	0.196	0	;
120	0.00829	0.04284	0.16304	-0.16304	1.0239	1	1	0.4076	0	;
121	0.00123	-0.00053	0.02414	-0.02414	1.0199	1	1	0.06035	0	;
121	0.00125	0	0	0	1.0199	1	1	0.006	0	;
122	0.02708	0.03353	0.53295	-0.53295	1.034	1	1	1.33236	0	;
122	0.09595	0.00498	0.07911	-0.07911	1.034	1	1	0.19777	0	;
123	0.20001	0.06155	0.1649	-0.1649	1.0269	1	1	0.41224	0	;
124	0.00187	0	0	0	1.0298	1	1	0.009	0	;
124	0.00045	0.00016	0.00037	-0.00037	1.0298	1	1	0.00093	0	;
124	0.04122	0.35627	0.81112	-0.81112	1.0298	1	1	2.02779	0	;
125	0.00323	-0.01495	0.06351	-0.06351	1.0229	1	1	0.15877	0	;
126	0.16172	0.00712	0.13333	-0.13333	1.0309	1	1	0.33332	0	;
126	0.00383	0.00403	0.07539	-0.07539	1.0309	1	1	0.18848	0	;
127	0.06395	0.00867	1.25827	-1.25827	1.0219	1	1	3.14568	0	;
127	0.06204	0.00076	0.11067	-0.11067	1.0219	1	1	0.27669	0	;
127	0.00405	0.00002	0.00334	-0.00334	1.0219	1	1	0.00836	0	;
127	0.09472	0	0	0	1.0219	1	1	0.455	0	;
128	0.00042	0.00441	0.00817	-0.00817	1.037	1	1	0.02043	0	;
128	0.09368	0	0	0	1.037	1	1	0.45	0	;
128	0.72798	0.32402	0.60017	-0.60017	1.037	1	1	1.50042	0	;
129	0.03726	0	0	0	1.0328	1	1	0.179	0	;
129	0.00649	0.04804	0.12776	-0.12776	1.0328	1	1	0.3194	0	;
129	0.63	0.15504	0.375	-0.3	1.0328	1	1	0.75	0.375	;
129	0.32119	0.09957	0.2648	-0.2648	1.0328	1	1	0.662	0	;
130	0.03874	0.02395	0.03194	-0.03194	1.0209	1	1	0.07985	0	;
131	0.38021	-0.05229	0.31345	-0.31345	1.0276	1	1	0.78363	0	;
131	0.0111	-0.03643	0.21838	-0.21838	1.0276	1	1	0.54594	0	;
132	0.00406	-0.00257	0.07985	-0.07985	1.0122	1	1	0.19962	0	;
132	0.14956	-0.00397	0.1233	-0.1233	1.0122	1	1	0.30825	0	;
133	0.61761	0.07114	0.50918	-0.50918	1.0067	1	1	1.27294	0	;
133	0.02373	0.06523	0.46684	-0.46684	1.0067	1	1	1.1671	0	;
133	0.03393	0	0	0	1.0067	1	1	0.163	0	;
134	0.8361	0.13059	0.6893	-0.6893	1.022	1	1	1.72325	0	;
136	0.02433	-0.01504	0.02006	-0.02006	1.0281	1	1	0.05014	0	;
137	0.12704	0.04011	0.10473	-0.10473	1.027	1	1	0.26183	0	;
137	0.00937	0	0	0	1.027	1	1	0.045	0	;
137	0.00815	0.06144	0.16044	-0.16044	1.027	1	1	0.4011	0	;
138	0.01291	0	0	0	1.0238	1	1	0.062	0	;
138	0.02433	-0.01504	0.02006	-0.02006	1.0238	1	1	0.05014	0	;
139	0.03919	0.00914	0.03231	-0.03231	1.0225	1	1	0.08078	0	;
140	0.01353	0	0	0	1.0201	1	1	0.065	0	;
141	0.05496	0.00244	0.04531	-0.04531	1.019	1	1	0.11327	0	;
142	0.05663	0	0	0	1.0256	1	1	0.272	0	;
142	0.08424	0.02056	0.06945	-0.06945	1.0256	1	1	0.17362	0	;
142	0.02116	0.12325	0.41633	-0.41633	1.0256	1	1	1.04082	0	;
144	0.0045	0.00014	0.00371	-0.00371	1.0212	1	1	0.00928	0	;
144	0.02078	0.01591	0.4089	-0.4089	1.0212	1	1	1.02225	0	;
145	1.81635	0.08248	1.49745	-1.49745	1.0178	1	1	3.74362	0	;
145	0.00157	0.0017	0.03083	-0.03083	1.0178	1	1	0.07706	0	;
147	0.02207	0.00099	0.0182	-0.0182	1.0254	1	1	0.04549	0	;
149	0.00496	0.00306	0.00409	-0.00409	1.021	1	1	0.01021	0	;
150	0.01157	0.02845	0.22766	-0.22766	1.0236	1	1	0.56916	0	;
150	0.0675	0.00825	0.044	-0.0352	1.0236	1	1	0.088	0.044	;
150	0.23695	0.02441	0.19535	-0.19535	1.0236	1	1	0.48838	0	;
150	0.0675	0.00825	0.044	-0.0352	1.0236	1	1	0.088	0.044	;
150	0.01083	0	0	0	1.0236	1	1	0.052	0	;
151	0.02228	0	0	0	1.0272	1	1	0.107	0	;
151	0.12163	0.00562	0.10028	-0.10028	1.0272	1	1	0.25069	0	;
152	0.06662	0.01093	0.11885	-0.11885	1.0205	1	1	0.29711	0	;
152	0.05496	0	0	0	1.0205	1	1	0.264	0	;
152	0.01831	0.03314	0.36025	-0.36025	1.0205	1	1	0.90062	0	;
152	0.11487	0.00871	0.0947	-0.0947	1.0205	1	1	0.23676	0	;
153	0.00081	-0.01198	0.01597	-0.01597	1.026	1	1	0.03992	0	;
154	0.01847	0.01142	0.01523	-0.01523	1.0176	1	1	0.03807	0	;
155	0.04872	0.09107	0.95856	-0.95856	1.0233	1	1	2.3964	0	;
155	0.00135	0.00011	0.00111	-0.00111	1.0233	1	1	0.00278	0	;
155	0.04122	0	0	0	1.0233	1	1	0.198	0	;
156	0.01936	0	0	0	1.0195	1	1	0.093	0	;
156	0.04356	-0.03786	0.85717	-0.85717	1.0195	1	1	2.14292	0	;
157	0.08019	-0.01272	0.06611	-0.06611	1.0183	1	1	0.16527	0	;
158	0.01182	0.05927	0.23249	-0.23249	1.027	1	1	0.58123	0	;
158	0.01261	0.00265	0.0104	-0.0104	1.027	1	1	0.026	0	;
159	0.03163	0.37032	0.62245	-0.62245	1.0289	1	1	1.55613	0	;
159	0.00479	0	0	0	1.0289	1	1	0.023	0	;
159	0.03198	0.01569	0.02637	-0.02637	1.0289	1	1	0.06592	0	;
160	0.03639	0.08492	0.71604	-0.71604	1.0282	1	1	1.7901	0	;
160	0.11848	0.01158	0.09768	-0.09768	1.0282	1	1	0.24419	0	;
160	0.11429	0	0	0	1.0282	1	1	0.549	0	;
161	0.0422	0.08822	0.83043	-0.83043	1.0185	1	1	2.07607	0	;
162	0.00798	0.06309	0.1571	-0.1571	1.021	1	1	0.39275	0	;
162	0.00583	0	0	0	1.021	1	1	0.028	0	;
162	0.26443	0.08755	0.21801	-0.21801	1.021	1	1	0.54502	0	;
163	0.01395	0	0	0	1.0227	1	1	0.067	0	;
163	0.04073	-0.02634	0.80146	-0.80146	1.0227	1	1	2.00365	0	;
164	0.02727	0	0	0	1.0276	1	1	0.131	0	;
165	0.01408	-0.02089	0.27706	-0.27706	1.0098	1	1	0.69264	0	;
165	0.04309	0	0	0	1.0098	1	1	0.207	0	;
166	0.04422	0.09352	0.87017	-0.87017	1.021	1	1	2.17542	0	;
166	0.08604	0.00762	0.07094	-0.07094	1.021	1	1	0.17734	0	;
167	0.07682	0	0	0	1.0097	1	1	0.369	0	;
167	0.02197	-0.01401	0.4323	-0.4323	1.0097	1	1	1.08075	0	;
167	0.00405	-0.00011	0.00334	-0.00334	1.0097	1	1	0.00836	0	;
168	0.02072	-0.01281	0.01708	-0.01708	1.03	1	1	0.04271	0	;
169	0.0288	0.33446	0.56674	-0.56674	1.0272	1	1	1.41686	0	;
170	0.00749	0	0	0	1.0201	1	1	0.036	0	;
170	0.01759	0.13806	0.34614	-0.34614	1.0201	1	1	0.86534	0	;
171	0.00125	0	0	0	1.0161	1	1	0.006	0	;
172	0.0687	0	0	0	1.009	1	1	0.33	0	;
172	0.01012	-0.0235	0.19907	-0.19907	1.009	1	1	0.49766	0	;
173	0.3	0.0043	0.15	-0.12	1.0379	1	1	0.3	0.15	;
173	0.3	0.0043	0.15	-0.12	1.0379	1	1	0.3	0.15	;
173	0.3	0.0043	0.15	-0.12	1.0379	1	1	0.3	0.15	;
173	0.54	0.00774	0.27	-0.216	1.0379	1	1	0.54	0.27	;
177	0.31	-0.00265	0.17	-0.136	1.0396	1	1	0.34	0	;
178	0.28	0.00473	0.145	-0.116	1.0267	1	1	0.29	0.145	;
178	0.28	0.00473	0.145	-0.116	1.0267	1	1	0.29	0.145	;
181	0.41	0.0204	0.22	-0.176	1.0359	1	1	0.44	0.22	;
181	0.41	0.0204	0.22	-0.176	1.0359	1	1	0.44	0.22	;
181	0.41	0.0204	0.22	-0.176	1.0359	1	1	0.44	0.22	;
182	0.86	0.01057	0.4775	-0.382	1.0373	1	1	0.955	0	;
183	2.95	0.03516	1.77	-0.885	1.0451	1	1	2.95	1.18	;
191	0.59	-0.01471	0.3	-0.24	1.0454	1	1	0.6	0.3	;
191	0.6	-0.01471	0.3	-0.24	1.0454	1	1	0.6	0.3	;
191	0.6	-0.01471	0.3	-0.24	1.0454	1	1	0.6	0.3	;
192	0.6	0.00972	0.4	-0.32	1.0421	1	1	0.8	0.4	;
192	0.58	0.00972	0.4	-0.32	1.0421	1	1	0.8	0.4	;
192	0.6	0.00972	0.4	-0.32	1.0421	1	1	0.8	0.4	;
194	0.79	0.05555	0.4	-0.32	1.0391	1	1	0.8	0.4	;
194	0.78	0.05555	0.4	-0.32	1.0391	1	1	0.8	0.4	;
195	0.7	0.02627	0.56	-0.448	1.0308	1	1	1.12	0	;
195	0.71	0.02627	0.56	-0.448	1.0308	1	1	1.12	0	;
195	0.71	0.02627	0.56	-0.448	1.0308	1	1	1.12	0	;
196	0.4	0.00287	0.31	-0.248	1.0399	1	1	0.62	0.31	;
196	0.42	0.00287	0.31	-0.248	1.0399	1	1	0.62	0.31	;
198	0.75	-0.00434	0.3825	-0.306	1.0427	1	1	0.765	0	;
198	0.75	-0.00434	0.3825	-0.306	1.0427	1	1	0.765	0	;
201	0.45	-0.01016	0.325	-0.26	1.0438	1	1	0.65	0.325	;
202	0.44	-0.00845	0.325	-0.26	1.0438	1	1	0.65	0.325	;
203	1.5	-0.1513	1.225	-0.98	1.0438	1	1	2.45	1.225	;
207	0.63	0.04236	0.35	-0.28	1.0296	1	1	0.7	0.35	;
218	0.49	0.01261	0.335	-0.268	1.0309	1	1	0.67	0.335	;
218	0.51	0.01261	0.335	-0.268	1.0309	1	1	0.67	0.335	;
218	0.51	0.01261	0.335	-0.268	1.0309	1	1	0.67	0.335	;
220	2.8	0.26377	1.98	-0.99	1.0305	1	1	3.3	1.98	;
220	2.8	0.26377	1.98	-0.99	1.0305	1	1	3.3	1.98	;
220	2.8	0.26377	1.98	-0.99	1.0305	1	1	3.3	1.98	;
222	2.37	0.26258	2.352	-1.176	1.024	1	1	3.92	2.352	;
225	1.91	-0.24568	0.955	-0.764	1.0483	1	1	1.91	0.955	;
227	1.04	-0.08612	0.6	-0.48	1.0451	1	1	1.2	0	;
227	1.06	-0.08612	0.6	-0.48	1.0451	1	1	1.2	0	;
228	1.05	-0.13239	0.64	-0.512	1.0451	1	1	1.28	0	;
228	1.04	-0.13239	0.64	-0.512	1.0451	1	1	1.28	0	;
233	1.91	0.03799	1.575	-1.26	1.0424	1	1	3.15	1.575	;
234	2.95	-0.11541	1.77	-0.885	1.0456	1	1	2.95	1.18	;
235	2.95	-0.11604	1.77	-0.885	1.0456	1	1	2.95	1.18	;
236	2.95	-0.11604	1.77	-0.885	1.0456	1	1	2.95	1.18	;
237	2.88	-0.07143	1.728	-0.864	1.0453	1	1	2.88	1.152	;
238	2.88	-0.07139	1.728	-0.864	1.0453	1	1	2.88	1.152	;
239	2.37556	-0.61408	2.352	-1.176	1.0414	1	1	3.92	2.352	;
240	2.38	-0.26143	2.352	-1.176	1.0414	1	1	3.92	2.352	;
241	2.73	-0.0792	2.478	-1.239	1.0438	1	1	4.13	2.478	;
242	2.73	-0.11333	2.478	-1.239	1.0436	1	1	4.13	2.478	;
250	0.22704	0.01607	0.18718	-0.18718	1.0407	1	1	0.46795	0	;
251	0.02152	0.02396	0.42339	-0.42339	1.0261	1	1	1.05846	0	;
252	0.03409	-0.01025	0.67073	-0.67073	1.0305	1	1	1.67683	0	;
253	0.02314	0.04315	0.45532	-0.45532	1.0275	1	1	1.13831	0	;
254	0.0487	-0.02108	0.95819	-0.95819	1.0327	1	1	2.39547	0	;
255	0.91358	0.08324	0.75318	-0.75318	1.0398	1	1	1.88295	0	;
262	0.04502	0.02832	0.88577	-0.88577	1.0261	1	1	2.21442	0	;
...
];

%% gen tags 
% Generation Technology Type:
%  CWS (Connection with Spain),
%  FOG (Fossil Gas),
%  FHC (Fossil Hard Coal),
%  HWR (Hydro Water Reservoir),
%  HPS (Hydro Pumped Storage),
%  HRP (Hydro Run-of-river and poundage),
%  SH1 (Small Hydro - P ≤ 10 MW),
%  SH3 (Small Hydro - 10 MW < P ≤ 30 MW),
%  PVP (Photovoltaic power plant),
%  WON (Wind onshore),
%  WOF (Wind offshore),
%  MAR (Marine),
%  OTH (Other thermal, such as geothermal, biomass, biogas, Municipal solid waste and CHP renewable and non-renewable)
%	genType
mpc.gen_tags = {
	'CWS';	'CWS';	'CWS';	'CWS';	'CWS';	'CWS';	'CWS';	'PVP';	'PVP';	'HWR';	'HWR';	'HRP';	'HRP';	'HRP';	'WON';	'SH3';	'HRP';	'HRP';	'OTH';	'WON';	'SH1';	'PVP';	'OTH';	'OTH';	'OTH';	'PVP';	'OTH';	'SH1';	'PVP';	'OTH';	'WON';	'SH1';	'SH3';	'PVP';	'HPS';	'HPS';	'OTH';	'WON';	'SH1';	'OTH';	'SH1';	'PVP';	'PVP';	'OTH';	'WON';	'SH1';	'SH3';	'OTH';	'WON';	'PVP';	'OTH';	'WON';	'SH1';	'PVP';	'WON';	'SH1';	'PVP';	'OTH';	'WON';	'PVP';	'OTH';	'PVP';	'OTH';	'WON';	'SH1';	'WON';	'OTH';	'WON';	'PVP';	'OTH';	'WON';	'SH1';	'SH3';	'OTH';	'WON';	'SH1';	'PVP';	'HWR';	'OTH';	'WON';	'SH1';	'OTH';	'OTH';	'WON';	'PVP';	'OTH';	'WON';	'OTH';	'WON';	'SH1';	'MAR';	'OTH';	'PVP';	'OTH';	'PVP';	'OTH';	'WON';	'SH1';	'OTH';	'SH1';	'PVP';	'OTH';	'SH1';	'PVP';	'OTH';	'OTH';	'WON';	'SH1';	'PVP';	'OTH';	'WON';	'OTH';	'WON';	'PVP';	'OTH';	'PVP';	'OTH';	'PVP';	'HWR';	'HRP';	'HRP';	'HRP';	'HRP';	'HWR';	'HWR';	'OTH';	'WON';	'SH1';	'PVP';	'OTH';	'SH1';	'OTH';	'WON';	'SH1';	'SH3';	'PVP';	'WON';	'PVP';	'OTH';	'PVP';	'HWR';	'OTH';	'WON';	'SH1';	'WON';	'SH1';	'OTH';	'OTH';	'WON';	'OTH';	'WON';	'SH1';	'PVP';	'OTH';	'WON';	'SH1';	'WON';	'OTH';	'WON';	'SH1';	'WON';	'SH1';	'SH1';	'PVP';	'WON';	'SH1';	'OTH';	'WON';	'PVP';	'OTH';	'WON';	'SH1';	'OTH';	'WON';	'PVP';	'WON';	'SH1';	'SH1';	'PVP';	'WON';	'SH1';	'HWR';	'HWR';	'HWR';	'HWR';	'HWR';	'HWR';	'HWR';	'HWR';	'HWR';	'HWR';	'HPS';	'HPS';	'HWR';	'HWR';	'HWR';	'HPS';	'HRP';	'HRP';	'HRP';	'HPS';	'HPS';	'FHC';	'HWR';	'HWR';	'HWR';	'HRP';	'HRP';	'HRP';	'HRP';	'HRP';	'HRP';	'HRP';	'HRP';	'HRP';	'HRP';	'HPS';	'HPS';	'HPS';	'HRP';	'HRP';	'HRP';	'HPS';	'HPS';	'HRP';	'HRP';	'HRP';	'HRP';	'HRP';	'HRP';	'HRP';	'HRP';	'HRP';	'FOG';	'FOG';	'FOG';	'FOG';	'HRP';	'HPS';	'HPS';	'HPS';	'HPS';	'HPS';	'HPS';	'HPS';	'HPS';	'HPS';	'HWR';	'HWR';	'FHC';	'FHC';	'FHC';	'FHC';	'FHC';	'FOG';	'FOG';	'FOG';	'FOG';	'FOG';	'FOG';	'OTH';	'WON';	'WON';	'WON';	'WON';	'OTH';	'WON';	'WON';	'WON';	'WON';	'WON';	'WON';	'WON';	'HRP';	'HRP';	'HRP';	'WOF';
};
%%
mpc.gencost = [
2	0	0	2	0	1	0	;
2	0	0	2	0	1	0	;
2	0	0	2	0	1	0	;
2	0	0	2	0	1	0	;
2	0	0	2	0	1	0	;
2	0	0	2	0	1	0	;
2	0	0	2	0	1	0	;
2	0	0	2	0	4	0	;
2	0	0	2	0	4	0	;
2	0	0	2	0	6	0	;
2	0	0	2	0	6	0	;
2	0	0	2	0	10	0	;
2	0	0	2	0	8	0	;
2	0	0	2	0	6	0	;
2	0	0	2	0	10	0	;
2	0	0	2	0	13	0	;
2	0	0	2	0	7	0	;
2	0	0	2	0	6	0	;
2	0	0	2	0	13	0	;
2	0	0	2	0	13	0	;
2	0	0	2	0	13	0	;
2	0	0	2	0	13	0	;
2	0	0	2	0	7	0	;
2	0	0	2	0	13	0	;
2	0	0	2	0	7	0	;
2	0	0	2	0	8	0	;
2	0	0	2	0	10	0	;
2	0	0	2	0	7	0	;
2	0	0	2	0	5	0	;
2	0	0	2	0	13	0	;
2	0	0	2	0	10	0	;
2	0	0	2	0	5	0	;
2	0	0	2	0	7	0	;
2	0	0	2	0	13	0	;
2	0	0	2	0	10	0	;
2	0	0	2	0	7	0	;
2	0	0	2	0	13	0	;
2	0	0	2	0	8	0	;
2	0	0	2	0	13	0	;
2	0	0	2	0	10	0	;
2	0	0	2	0	13	0	;
2	0	0	2	0	7	0	;
2	0	0	2	0	10	0	;
2	0	0	2	0	10	0	;
2	0	0	2	0	7	0	;
2	0	0	2	0	10	0	;
2	0	0	2	0	13	0	;
2	0	0	2	0	13	0	;
2	0	0	2	0	7	0	;
2	0	0	2	0	13	0	;
2	0	0	2	0	10	0	;
2	0	0	2	0	10	0	;
2	0	0	2	0	13	0	;
2	0	0	2	0	10	0	;
2	0	0	2	0	10	0	;
2	0	0	2	0	8	0	;
2	0	0	2	0	13	0	;
2	0	0	2	0	7	0	;
2	0	0	2	0	10	0	;
2	0	0	2	0	7	0	;
2	0	0	2	0	13	0	;
2	0	0	2	0	7	0	;
2	0	0	2	0	10	0	;
2	0	0	2	0	4	0	;
2	0	0	2	0	13	0	;
2	0	0	2	0	13	0	;
2	0	0	2	0	13	0	;
2	0	0	2	0	10	0	;
2	0	0	2	0	10	0	;
2	0	0	2	0	13	0	;
2	0	0	2	0	13	0	;
2	0	0	2	0	10	0	;
2	0	0	2	0	7	0	;
2	0	0	2	0	13	0	;
2	0	0	2	0	13	0	;
2	0	0	2	0	13	0	;
2	0	0	2	0	7	0	;
2	0	0	2	0	10	0	;
2	0	0	2	0	7	0	;
2	0	0	2	0	13	0	;
2	0	0	2	0	13	0	;
2	0	0	2	0	7	0	;
2	0	0	2	0	13	0	;
2	0	0	2	0	7	0	;
2	0	0	2	0	13	0	;
2	0	0	2	0	10	0	;
2	0	0	2	0	13	0	;
2	0	0	2	0	10	0	;
2	0	0	2	0	13	0	;
2	0	0	2	0	10	0	;
2	0	0	2	0	13	0	;
2	0	0	2	0	13	0	;
2	0	0	2	0	10	0	;
2	0	0	2	0	6	0	;
2	0	0	2	0	13	0	;
2	0	0	2	0	6	0	;
2	0	0	2	0	7	0	;
2	0	0	2	0	7	0	;
2	0	0	2	0	13	0	;
2	0	0	2	0	8	0	;
2	0	0	2	0	7	0	;
2	0	0	2	0	10	0	;
2	0	0	2	0	13	0	;
2	0	0	2	0	10	0	;
2	0	0	2	0	13	0	;
2	0	0	2	0	10	0	;
2	0	0	2	0	13	0	;
2	0	0	2	0	7	0	;
2	0	0	2	0	7	0	;
2	0	0	2	0	10	0	;
2	0	0	2	0	13	0	;
2	0	0	2	0	10	0	;
2	0	0	2	0	13	0	;
2	0	0	2	0	10	0	;
2	0	0	2	0	7	0	;
2	0	0	2	0	13	0	;
2	0	0	2	0	10	0	;
2	0	0	2	0	13	0	;
2	0	0	2	0	7	0	;
2	0	0	2	0	10	0	;
2	0	0	2	0	10	0	;
2	0	0	2	0	7	0	;
2	0	0	2	0	13	0	;
2	0	0	2	0	7	0	;
2	0	0	2	0	10	0	;
2	0	0	2	0	7	0	;
2	0	0	2	0	10	0	;
2	0	0	2	0	7	0	;
2	0	0	2	0	10	0	;
2	0	0	2	0	13	0	;
2	0	0	2	0	7	0	;
2	0	0	2	0	10	0	;
2	0	0	2	0	13	0	;
2	0	0	2	0	13	0	;
2	0	0	2	0	10	0	;
2	0	0	2	0	7	0	;
2	0	0	2	0	10	0	;
2	0	0	2	0	7	0	;
2	0	0	2	0	7	0	;
2	0	0	2	0	10	0	;
2	0	0	2	0	4	0	;
2	0	0	2	0	4	0	;
2	0	0	2	0	4	0	;
2	0	0	2	0	4	0	;
2	0	0	2	0	5	0	;
2	0	0	2	0	4	0	;
2	0	0	2	0	4	0	;
2	0	0	2	0	6	0	;
2	0	0	2	0	6	0	;
2	0	0	2	0	6	0	;
2	0	0	2	0	5	0	;
2	0	0	2	0	3	0	;
2	0	0	2	0	6	0	;
2	0	0	2	0	6	0	;
2	0	0	2	0	6	0	;
2	0	0	2	0	6	0	;
2	0	0	2	0	6	0	;
2	0	0	2	0	6	0	;
2	0	0	2	0	6	0	;
2	0	0	2	0	6	0	;
2	0	0	2	0	5	0	;
2	0	0	2	0	5	0	;
2	0	0	2	0	5	0	;
2	0	0	2	0	6	0	;
2	0	0	2	0	6	0	;
2	0	0	2	0	5	0	;
2	0	0	2	0	5	0	;
2	0	0	2	0	6	0	;
2	0	0	2	0	6	0	;
2	0	0	2	0	6	0	;
2	0	0	2	0	6	0	;
2	0	0	2	0	6	0	;
2	0	0	2	0	6	0	;
2	0	0	2	0	6	0	;
2	0	0	2	0	2	0	;
2	0	0	2	0	2	0	;
2	0	0	2	0	2	0	;
2	0	0	2	0	2	0	;
2	0	0	2	0	6	0	;
2	0	0	2	0	5	0	;
2	0	0	2	0	5	0	;
2	0	0	2	0	5	0	;
2	0	0	2	0	5	0	;
2	0	0	2	0	4	0	;
2	0	0	2	0	3	0	;
2	0	0	2	0	3	0	;
2	0	0	2	0	3	0	;
2	0	0	2	0	3	0	;
2	0	0	2	0	3	0	;
2	0	0	2	0	2	0	;
2	0	0	2	0	2	0	;
2	0	0	2	0	2	0	;
2	0	0	2	0	2	0	;
2	0	0	2	0	13	0	;
2	0	0	2	0	10	0	;
2	0	0	2	0	10	0	;
2	0	0	2	0	10	0	;
2	0	0	2	0	10	0	;
2	0	0	2	0	13	0	;
2	0	0	2	0	10	0	;
...
]
%% branch data
% If the 'step_size', 'actTap', 'minTap', 'maxTap' and 'normalTap' fields are equal to "-1", it means that the transformer does not have tap changing capability
% If the length is equal to "0", it means that the correspondent branch represents a transformer
%	fbus	tbus	r	x	b	rateA (summer)	rateB (spring)	rateC (winter)	tap ratio	shift angle		status	angmin	angmax	step_size	actTap	minTap	maxTap	normalTap	length (km)
mpc.branch = [
	8	24	0.02945	0.09879	0.03302	91	123	130	0	0	0	-360	360	0	0	0	0	0	54.0	;
	8	176	0.02007	0.06867	0.02205	96	104	104	0	0	1	-360	360	0	0	0	0	0	36.6	;
	8	176	0.02014	0.06872	0.02229	96	104	104	0	0	1	-360	360	0	0	0	0	0	36.7	;
	9	14	0.00146	0.00787	0.00265	255	260	260	0	0	1	-360	360	0	0	0	0	0	4.3	;
	9	14	0.00146	0.00769	0.00260	255	260	260	0	0	1	-360	360	0	0	0	0	0	4.2	;
	9	14	0.00137	0.00737	0.00250	124	162	203	0	0	1	-360	360	0	0	0	0	0	4.1	;
	10	19	0.02098	0.11168	0.03801	218	248	260	0	0	1	-360	360	0	0	0	0	0	61.3	;
	10	22	0.02445	0.08166	0.02747	164	186	206	0	0	1	-360	360	0	0	0	0	0	44.5	;
	10	26	0.00777	0.04761	0.01640	260	260	260	0	0	1	-360	360	0	0	0	0	0	26.0	;
	11	14	0.02030	0.07019	0.02214	171	186	206	0	0	1	-360	360	0	0	0	0	0	36.7	;
	11	14	0.02010	0.06862	0.02204	191	204	222	0	0	1	-360	360	0	0	0	0	0	36.5	;
	12	22	0.02823	0.10553	0.04049	189	204	222	0	0	1	-360	360	0	0	0	0	0	61.6	;
	12	23	0.01953	0.08771	0.03214	195	204	222	0	0	1	-360	360	0	0	0	0	0	49.8	;
	12	29	0.01515	0.04945	0.01745	195	204	222	0	0	1	-360	360	0	0	0	0	0	27.9	;
	12	29	0.01515	0.04945	0.01745	195	204	222	0	0	1	-360	360	0	0	0	0	0	27.9	;
	12	29	0.00551	0.05765	0.03609	260	260	260	0	0	1	-360	360	0	0	0	0	0	42.8	;
	12	34	0.02334	0.12013	0.04435	255	260	260	0	0	1	-360	360	0	0	0	0	0	68.7	;
	13	14	0.00788	0.04049	0.01506	255	260	260	0	0	1	-360	360	0	0	0	0	0	23.1	;
	13	14	0.00788	0.04049	0.01506	255	260	260	0	0	1	-360	360	0	0	0	0	0	23.1	;
	13	20	0.00745	0.02441	0.00855	195	204	221	0	0	1	-360	360	0	0	0	0	0	13.6	;
	13	20	0.00745	0.02441	0.00855	195	204	221	0	0	1	-360	360	0	0	0	0	0	13.6	;
	13	180	0.00411	0.02110	0.00788	255	260	260	0	0	1	-360	360	0	0	0	0	0	12.0	;
	13	246	0.00422	0.02163	0.00811	260	260	260	0	0	1	-360	360	0	0	0	0	0	12.2	;
	14	180	0.00411	0.02110	0.00788	255	260	260	0	0	1	-360	360	0	0	0	0	0	12.0	;
	14	185	0.01114	0.03788	0.01266	191	204	222	0	0	1	-360	360	0	0	0	0	0	20.5	;
	14	186	0.02662	0.09054	0.02905	185	204	222	0	0	1	-360	360	0	0	0	0	0	48.4	;
	14	246	0.00408	0.02092	0.00779	255	260	260	0	0	1	-360	360	0	0	0	0	0	12.0	;
	15	22	0.02154	0.10932	0.04126	224	248	260	0	0	1	-360	360	0	0	0	0	0	63.4	;
	15	22	0.02154	0.10932	0.04126	224	248	260	0	0	1	-360	360	0	0	0	0	0	63.4	;
	15	26	0.00974	0.05968	0.02055	260	260	260	0	0	1	-360	360	0	0	0	0	0	32.6	;
	15	27	0.02701	0.09576	0.03037	191	204	222	0	0	1	-360	360	0	0	0	0	0	50.5	;
	15	28	0.03335	0.10915	0.03827	195	204	222	0	0	1	-360	360	0	0	0	0	0	60.7	;
	15	29	0.05251	0.17172	0.06032	195	204	222	0	0	1	-360	360	0	0	0	0	0	95.6	;
	15	183	0.00164	0.01656	0.01111	340	340	340	0	0	1	-360	360	0	0	0	0	0	12.8	;
	15	250	0.00184	0.00954	0.00342	130	130	130	0	0	1	-360	360	0	0	0	0	0	5.4	;
	15	250	0.00187	0.00974	0.00349	130	130	130	0	0	1	-360	360	0	0	0	0	0	5.5	;
	15	255	0.00282	0.01157	0.02727	260	273	296	0	0	1	-360	360	0	0	0	0	0	5.9	;
	16	178	0.00839	0.03586	0.01167	104	123	130	0	0	1	-360	360	0	0	0	0	0	19.0	;
	17	21	0.01658	0.06789	0.02323	195	204	222	0	0	1	-360	360	0	0	0	0	0	37.9	;
	17	21	0.00900	0.05720	0.02480	260	273	296	0	0	1	-360	360	0	0	0	0	0	35.0	;
	17	25	0.01638	0.06453	0.02191	104	123	153	0	0	1	-360	360	0	0	0	0	0	35.2	;
	17	184	0.01106	0.03018	0.01032	91	108	134	0	0	1	-360	360	0	0	0	0	0	16.6	;
	18	25	0.01295	0.04125	0.01502	104	123	153	0	0	1	-360	360	0	0	0	0	0	23.6	;
	18	25	0.01293	0.04111	0.01508	104	123	153	0	0	1	-360	360	0	0	0	0	0	23.6	;
	18	32	0.02192	0.07804	0.02533	195	204	222	0	0	1	-360	360	0	0	0	0	0	41.7	;
	19	186	0.02662	0.09054	0.02905	185	204	222	0	0	1	-360	360	0	0	0	0	0	48.4	;
	21	30	0.01441	0.06067	0.02080	195	204	222	0	0	1	-360	360	0	0	0	0	0	33.3	;
	21	251	0.00610	0.04180	0.01950	260	273	296	0	0	1	-360	360	0	0	0	0	0	26.5	;
	22	34	0.01325	0.06238	0.06238	337	372	411	0	0	1	-360	360	0	0	0	0	0	57.9	;
	22	245	0.01212	0.04116	0.01324	81	123	130	0	0	1	-360	360	0	0	0	0	0	22.0	;
	23	34	0.01185	0.06135	0.02247	255	260	260	0	0	1	-360	360	0	0	0	0	0	35.1	;
	23	34	0.01185	0.06135	0.02247	255	260	260	0	0	1	-360	360	0	0	0	0	0	35.1	;
	23	34	0.01580	0.07475	0.02730	255	260	260	0	0	1	-360	360	0	0	0	0	0	42.7	;
	24	31	0.00310	0.03271	0.07540	520	520	520	0	0	1	-360	360	0	0	0	0	0	46.5	;
	24	35	0.01164	0.12660	0.06946	253	273	296	0	0	1	-360	360	0	0	0	0	0	88.8	;
	24	181	0.00436	0.01464	0.00484	189	195	195	0	0	1	-360	360	0	0	0	0	0	7.8	;
	24	248	0.00715	0.03705	0.01350	227	248	381	0	0	1	-360	360	0	0	0	0	0	20.8	;
	24	248	0.00715	0.03705	0.01350	227	248	381	0	0	1	-360	360	0	0	0	0	0	20.8	;
	24	252	0.01240	0.06509	0.02314	253	260	260	0	0	1	-360	360	0	0	0	0	0	36.3	;
	25	32	0.01065	0.03476	0.01219	195	204	222	0	0	1	-360	360	0	0	0	0	0	19.3	;
	25	32	0.01069	0.03488	0.01223	195	204	222	0	0	1	-360	360	0	0	0	0	0	19.3	;
	25	32	0.00504	0.02690	0.01516	233	248	260	0	0	1	-360	360	0	0	0	0	0	18.0	;
	27	185	0.01114	0.03788	0.01266	191	204	222	0	0	1	-360	360	0	0	0	0	0	20.5	;
	28	29	0.01921	0.06275	0.02210	195	204	222	0	0	1	-360	360	0	0	0	0	0	35.2	;
	30	32	0.00729	0.02383	0.00834	195	204	222	0	0	1	-360	360	0	0	0	0	0	13.2	;
	30	32	0.00729	0.02383	0.00834	195	204	222	0	0	1	-360	360	0	0	0	0	0	13.2	;
	30	32	0.00732	0.02829	0.00946	195	204	222	0	0	1	-360	360	0	0	0	0	0	15.4	;
	30	33	0.00260	0.02724	0.01640	520	520	520	0	0	1	-360	360	0	0	0	0	0	19.8	;
	30	174	0.00358	0.02407	0.00900	260	260	260	0	0	1	-360	360	0	0	0	0	0	13.8	;
	30	179	0.00403	0.01370	0.00440	104	123	153	0	0	1	-360	360	0	0	0	0	0	7.3	;
	30	184	0.01106	0.03018	0.01032	91	108	134	0	0	1	-360	360	0	0	0	0	0	16.6	;
	31	248	0.00715	0.03705	0.01350	227	248	381	0	0	1	-360	360	0	0	0	0	0	20.8	;
	31	248	0.00715	0.03705	0.01350	227	248	381	0	0	1	-360	360	0	0	0	0	0	20.8	;
	31	253	0.01091	0.05722	0.02036	253	260	260	0	0	1	-360	360	0	0	0	0	0	31.9	;
	32	33	0.00695	0.04818	0.02461	504	520	520	0	0	1	-360	360	0	0	0	0	0	32.2	;
	32	254	0.01869	0.10188	0.03320	260	273	296	0	0	1	-360	360	0	0	0	0	0	53.5	;
	32	254	0.01869	0.10188	0.03320	260	273	296	0	0	1	-360	360	0	0	0	0	0	53.5	;
	33	173	0.00082	0.00526	0.00200	306	321	348	0	0	1	-360	360	0	0	0	0	0	3.0	;
	33	177	0.00830	0.02880	0.00938	104	104	104	0	0	1	-360	360	0	0	0	0	0	15.3	;
	33	182	0.00023	0.00161	0.00056	306	321	348	0	0	1	-360	360	0	0	0	0	0	0.9	;
	33	184	0.00504	0.03382	0.01267	274	291	322	0	0	1	-360	360	0	0	0	0	0	19.3	;
	36	64	0.00418	0.02292	0.13770	666	728	804	0	0	1	-360	360	0	0	0	0	0	52.3	;
	36	71	0.00396	0.02133	0.13035	666	728	804	0	0	1	-360	360	0	0	0	0	0	48.9	;
	36	187	0.00011	0.00060	0.00094	191	191	191	0	0	1	-360	360	0	0	0	0	0	0.7	;
	36	188	0.00018	0.00061	0.00092	191	191	191	0	0	1	-360	360	0	0	0	0	0	0.7	;
	36	189	0.00018	0.00061	0.00092	191	191	191	0	0	1	-360	360	0	0	0	0	0	0.8	;
	37	59	0.00168	0.00382	0.35975	493	493	493	0	0	1	-360	360	0	0	0	0	0	10.4	;
	37	213	0.00017	0.00044	0.04927	322	322	322	0	0	1	-360	360	0	0	0	0	0	1.8	;
	37	214	0.00017	0.00044	0.04927	322	322	322	0	0	1	-360	360	0	0	0	0	0	1.8	;
	37	215	0.00017	0.00044	0.04927	322	322	322	0	0	1	-360	360	0	0	0	0	0	1.8	;
	37	216	0.00017	0.00044	0.04927	322	322	322	0	0	1	-360	360	0	0	0	0	0	1.8	;
	38	208	0.00048	0.00109	0.10268	493	493	493	0	0	1	-360	360	0	0	0	0	0	3.2	;
	38	209	0.00048	0.00108	0.10056	493	493	493	0	0	1	-360	360	0	0	0	0	0	3.2	;
	39	45	0.01696	0.09185	0.14133	381	381	381	0	0	1	-360	360	0	0	0	0	0	106.8	;
	39	69	0.00691	0.03721	0.05799	342	364	381	0	0	1	-360	360	0	0	0	0	0	43.0	;
	39	69	0.00687	0.03725	0.05671	381	381	381	0	0	1	-360	360	0	0	0	0	0	43.0	;
	39	71	0.00183	0.01006	0.05957	684	727	762	0	0	1	-360	360	0	0	0	0	0	22.2	;
	39	78	0.00658	0.03647	0.05332	382	400	435	0	0	1	-360	360	0	0	0	0	0	41.1	;
	39	195	0.00484	0.02634	0.04046	199	237	297	0	0	1	-360	360	0	0	0	0	0	30.4	;
	39	199	0.00873	0.04861	0.07070	381	381	381	0	0	1	-360	360	0	0	0	0	0	54.7	;
	39	258	0.00326	0.01810	0.02629	382	400	435	0	0	1	-360	360	0	0	0	0	0	20.3	;
	39	258	0.00240	0.01307	0.02007	199	237	297	0	0	1	-360	360	0	0	0	0	0	15.1	;
	40	51	0.00874	0.04843	0.07272	374	400	435	0	0	1	-360	360	0	0	0	0	0	54.7	;
	40	65	0.00985	0.05518	0.07982	333	364	381	0	0	1	-360	360	0	0	0	0	0	61.9	;
	40	65	0.00944	0.05439	0.07975	333	364	381	0	0	1	-360	360	0	0	0	0	0	61.8	;
	40	196	0.00017	0.00091	0.00135	182	237	297	0	0	1	-360	360	0	0	0	0	0	1.0	;
	40	198	0.00214	0.01565	0.02877	439	471	511	0	0	1	-360	360	0	0	0	0	0	19.6	;
	40	5	0.00630	0.03584	0.05497	374	400	435	0	0	1	-360	360	0	0	0	0	0	41.1	;
	40	5	0.00636	0.03628	0.05564	374	400	435	0	0	1	-360	360	0	0	0	0	0	41.4	;
	40	6	0.00481	0.02670	0.03939	360	390	430	0	0	1	-360	360	0	0	0	0	0	30.2	;
	41	53	0.00145	0.00845	0.01465	381	381	381	0	0	1	-360	360	0	0	0	0	0	10.4	;
	41	53	0.00078	0.00546	0.00902	381	381	381	0	0	1	-360	360	0	0	0	0	0	6.5	;
	41	57	0.00318	0.01660	0.02798	381	381	381	0	0	1	-360	360	0	0	0	0	0	20.2	;
	41	68	0.00084	0.00572	0.00995	401	426	472	0	0	1	-360	360	0	0	0	0	0	7.0	;
	41	68	0.00170	0.00386	0.36133	493	493	493	0	0	1	-360	360	0	0	0	0	0	10.7	;
	41	210	0.00056	0.00586	0.01715	762	762	762	0	0	1	-360	360	0	0	0	0	0	9.4	;
	41	211	0.00221	0.02313	0.06702	762	762	762	0	0	1	-360	360	0	0	0	0	0	37.0	;
	42	78	0.00448	0.02493	0.03617	382	400	435	0	0	1	-360	360	0	0	0	0	0	28.0	;
	42	78	0.00448	0.02494	0.03619	382	400	435	0	0	1	-360	360	0	0	0	0	0	28.0	;
	42	257	0.00276	0.01543	0.02230	381	381	381	0	0	1	-360	360	0	0	0	0	0	17.3	;
	42	257	0.00274	0.01524	0.02237	381	381	381	0	0	1	-360	360	0	0	0	0	0	17.3	;
	43	58	0.00210	0.00476	0.44633	493	493	493	0	0	1	-360	360	0	0	0	0	0	12.6	;
	43	76	0.00113	0.00321	0.34652	446	446	446	0	0	1	-360	360	0	0	0	0	0	11.1	;
	43	76	0.00113	0.00320	0.34511	446	446	446	0	0	1	-360	360	0	0	0	0	0	11.1	;
	43	204	0.00146	0.00771	0.01235	381	381	381	0	0	1	-360	360	0	0	0	0	0	9.2	;
	43	205	0.00063	0.00332	0.00533	381	381	381	0	0	1	-360	360	0	0	0	0	0	3.9	;
	43	219	0.00083	0.00445	0.00676	342	364	381	0	0	1	-360	360	0	0	0	0	0	5.4	;
	44	48	0.00396	0.02139	0.03311	342	364	381	0	0	1	-360	360	0	0	0	0	0	24.9	;
	44	66	0.00779	0.04029	0.06834	381	381	381	0	0	1	-360	360	0	0	0	0	0	50.9	;
	44	66	0.00311	0.03080	0.09461	897	941	1021	0	0	1	-360	360	0	0	0	0	0	50.7	;
	44	193	0.00504	0.02686	0.04234	381	381	381	0	0	1	-360	360	0	0	0	0	0	31.7	;
	45	46	0.00650	0.03510	0.05270	382	400	435	0	0	1	-360	360	0	0	0	0	0	40.2	;
	45	46	0.00608	0.03139	0.05420	382	400	435	0	0	1	-360	360	0	0	0	0	0	38.8	;
	45	46	0.00614	0.03155	0.05417	382	400	435	0	0	1	-360	360	0	0	0	0	0	38.8	;
	45	74	0.00586	0.03263	0.04775	381	381	381	0	0	1	-360	360	0	0	0	0	0	36.7	;
	45	199	0.00873	0.04861	0.07070	381	381	381	0	0	1	-360	360	0	0	0	0	0	54.7	;
	46	50	0.00409	0.02221	0.03328	381	400	435	0	0	1	-360	360	0	0	0	0	0	25.4	;
	46	64	0.00275	0.01510	0.09065	666	728	804	0	0	1	-360	360	0	0	0	0	0	34.8	;
	46	214	0.00477	0.02559	0.04001	381	381	381	0	0	1	-360	360	0	0	0	0	0	30.0	;
	46	216	0.00465	0.02524	0.03797	382	400	435	0	0	1	-360	360	0	0	0	0	0	28.9	;
	46	222	0.00006	0.00021	0.02068	438	438	438	0	0	1	-360	360	0	0	0	0	0	0.8	;
	46	260	0.00913	0.04888	0.07531	342	364	381	0	0	1	-360	360	0	0	0	0	0	56.8	;
	47	57	0.01028	0.05388	0.08954	381	381	381	0	0	1	-360	360	0	0	0	0	0	65.0	;
	47	61	0.00034	0.00182	0.00285	199	237	297	0	0	1	-360	360	0	0	0	0	0	2.1	;
	47	66	0.00525	0.02886	0.04430	381	381	381	0	0	1	-360	360	0	0	0	0	0	33.4	;
	47	67	0.00789	0.04153	0.06856	381	381	381	0	0	1	-360	360	0	0	0	0	0	50.0	;
	47	75	0.00724	0.03931	0.05957	382	400	435	0	0	1	-360	360	0	0	0	0	0	45.0	;
	47	197	0.00304	0.02737	0.07433	762	762	762	0	0	0	-360	360	0	0	0	0	0	42.1	;
	47	211	0.00221	0.02313	0.06702	762	762	762	0	0	1	-360	360	0	0	0	0	0	37.0	;
	47	224	0.00039	0.00426	0.01070	750	762	762	0	0	1	-360	360	0	0	0	0	0	6.4	;
	48	66	0.01101	0.05739	0.09535	381	381	381	0	0	1	-360	360	0	0	0	0	0	69.5	;
	48	69	0.00352	0.01887	0.02971	342	364	381	0	0	1	-360	360	0	0	0	0	0	22.6	;
	48	69	0.00350	0.01889	0.02900	381	381	381	0	0	1	-360	360	0	0	0	0	0	22.0	;
	49	57	0.00169	0.00872	0.05960	381	381	381	0	0	1	-360	360	0	0	0	0	0	21.4	;
	49	193	0.00037	0.00490	0.01932	1200	1200	1200	0	0	1	-360	360	0	0	0	0	0	9.2	;
	49	221	0.00055	0.00728	0.02882	762	762	762	0	0	1	-360	360	0	0	0	0	0	13.7	;
	50	55	0.00311	0.01663	0.02615	381	381	381	0	0	1	-360	360	0	0	0	0	0	19.5	;
	50	55	0.00252	0.01377	0.02062	381	381	381	0	0	1	-360	360	0	0	0	0	0	15.8	;
	50	56	0.00162	0.01419	0.06090	762	762	762	0	0	1	-360	360	0	0	0	0	0	27.0	;
	50	204	0.00146	0.00771	0.01235	381	381	381	0	0	1	-360	360	0	0	0	0	0	9.2	;
	50	213	0.00210	0.01087	0.01848	381	381	381	0	0	1	-360	360	0	0	0	0	0	13.3	;
	50	215	0.00316	0.01718	0.02582	382	400	435	0	0	1	-360	360	0	0	0	0	0	19.7	;
	50	217	0.00182	0.00952	0.01558	382	400	435	0	0	1	-360	360	0	0	0	0	0	11.3	;
	51	66	0.00711	0.03753	0.06399	382	400	435	0	0	1	-360	360	0	0	0	0	0	45.9	;
	51	66	0.00712	0.03759	0.06408	382	400	435	0	0	1	-360	360	0	0	0	0	0	46.0	;
	51	194	0.00465	0.02422	0.04046	382	400	435	0	0	1	-360	360	0	0	0	0	0	29.4	;
	51	194	0.00466	0.02427	0.04055	382	400	435	0	0	1	-360	360	0	0	0	0	0	29.5	;
	51	197	0.00016	0.00142	0.00404	825	864	938	0	0	1	-360	360	0	0	0	0	0	2.2	;
	51	224	0.00039	0.00426	0.01070	750	762	762	0	0	0	-360	360	0	0	0	0	0	6.4	;
	52	199	0.00057	0.00311	0.00469	191	191	191	0	0	1	-360	360	0	0	0	0	0	3.6	;
	53	68	0.00078	0.00545	0.00900	401	426	472	0	0	1	-360	360	0	0	0	0	0	6.6	;
	53	190	0.00222	0.01196	0.02035	381	381	381	0	0	1	-360	360	0	0	0	0	0	14.7	;
	54	63	0.00412	0.02158	0.03520	374	381	381	0	0	1	-360	360	0	0	0	0	0	25.7	;
	54	77	0.00631	0.03514	0.05182	374	400	435	0	0	1	-360	360	0	0	0	0	0	39.5	;
	54	77	0.00636	0.03898	0.06249	374	400	435	0	0	1	-360	360	0	0	0	0	0	46.1	;
	54	191	0.00237	0.01312	0.01925	182	229	229	0	0	1	-360	360	0	0	0	0	0	14.9	;
	54	191	0.00189	0.01296	0.02104	229	229	229	0	0	1	-360	360	0	0	0	0	0	15.5	;
	54	192	0.00309	0.01722	0.02516	374	400	435	0	0	1	-360	360	0	0	0	0	0	19.4	;
	54	200	0.00006	0.00035	0.00053	182	237	297	0	0	1	-360	360	0	0	0	0	0	0.4	;
	54	201	0.00006	0.00035	0.00053	182	237	297	0	0	1	-360	360	0	0	0	0	0	0.4	;
	54	202	0.00006	0.00035	0.00053	182	237	297	0	0	1	-360	360	0	0	0	0	0	0.4	;
	54	203	0.00005	0.00034	0.00053	182	237	297	0	0	1	-360	360	0	0	0	0	0	0.2	;
	55	58	0.00049	0.00177	0.22418	364	364	364	0	0	1	-360	360	0	0	0	0	0	7.8	;
	55	204	0.00041	0.00224	0.00340	381	381	381	0	0	1	-360	360	0	0	0	0	0	2.6	;
	55	205	0.00063	0.00332	0.00533	381	381	381	0	0	1	-360	360	0	0	0	0	0	3.9	;
	56	74	0.00719	0.04008	0.05857	382	400	435	0	0	1	-360	360	0	0	0	0	0	46.0	;
	56	205	0.00144	0.00779	0.01170	382	400	435	0	0	1	-360	360	0	0	0	0	0	8.9	;
	57	60	0.00351	0.01764	0.02842	381	381	381	0	0	1	-360	360	0	0	0	0	0	20.8	;
	57	67	0.00249	0.01299	0.02177	381	381	381	0	0	1	-360	360	0	0	0	0	0	15.7	;
	57	190	0.00222	0.01196	0.02035	381	381	381	0	0	1	-360	360	0	0	0	0	0	14.7	;
	57	210	0.00056	0.00586	0.01715	762	762	762	0	0	1	-360	360	0	0	0	0	0	9.4	;
	57	220	0.00042	0.00563	0.02152	1200	1200	1200	0	0	1	-360	360	0	0	0	0	0	10.4	;
	57	221	0.00055	0.00728	0.02882	762	762	762	0	0	1	-360	360	0	0	0	0	0	13.7	;
	58	219	0.00038	0.00138	0.17477	364	364	364	0	0	1	-360	360	0	0	0	0	0	6.2	;
	59	217	0.00204	0.00462	0.43235	493	493	493	0	0	1	-360	360	0	0	0	0	0	12.5	;
	60	66	0.00204	0.01097	0.01708	381	381	381	0	0	1	-360	360	0	0	0	0	0	12.8	;
	60	206	0.00004	0.00020	0.00031	191	191	191	0	0	1	-360	360	0	0	0	0	0	0.2	;
	60	207	0.00004	0.00024	0.00036	191	191	191	0	0	1	-360	360	0	0	0	0	0	0.3	;
	62	212	0.00201	0.01066	0.01664	374	381	381	0	0	1	-360	360	0	0	0	0	0	12.5	;
	62	259	0.00494	0.02909	0.05136	376	381	381	0	0	1	-360	360	0	0	0	0	0	36.5	;
...
];